AMOSTRA/GOI/GD.dss
! GERACAO DISTRIBUIDA — gerada de UGBT_tab e UGMT_tab
! Unidades com potencia nula sao omitidas (gerariam NaN).
! 70 unidades descartadas por potencia nula.
! 240 unidades de BT realocadas para o secundario do transformador (rede secundaria nao modelada).
! 0 unidades descartadas por ponto de conexao ausente da rede.
! irradiance=1 — ver o docstring: 1,0 e meio-dia de ceu claro, nao a ponta de carga.
! 1 barras tiveram a GD limitada a capacidade do transformador (4 kW cortados).
! inversores em pf=1 — ver o docstring de _pv: 0,92 e capacidade exigida pelo PRODIST, nao despacho.
! 0 unidades de MT ligadas pelo PAC da carga (casadas por CEG_GD): o PAC da UGMT nao existe na SSDMT.
New PVSystem.GD_5541635f483ca6e36eff0dcdee299639f9d5744c725b48e72e8bda43a32cd367 phases=3 bus1=13137-8904012.1.2.3 conn=wye kv=13.8000 pf=1 pmpp=16.88 kva=16.88 irradiance=1 temperature=25 %cutin=20 %cutout=20 effcurve=MyEff P-TCurve=MyPvsT Daily=IRRAD_DIA TDaily=TEMP_DIA
New PVSystem.GD_bdcb6f2f66543d0a14bfc4192b91035f27aea1234bcd008d48c0db660d70cc37_1 phases=1 bus1=2411208-8906391v.1.4 conn=wye kv=0.1100 pf=1 pmpp=1.21 kva=1.21 irradiance=1 temperature=25 %cutin=20 %cutout=20 effcurve=MyEff P-TCurve=MyPvsT Daily=IRRAD_DIA TDaily=TEMP_DIA
New PVSystem.GD_bdcb6f2f66543d0a14bfc4192b91035f27aea1234bcd008d48c0db660d70cc37_2 phases=1 bus1=2411208-8906391v.2.4 conn=wye kv=0.1100 pf=1 pmpp=1.21 kva=1.21 irradiance=1 temperature=25 %cutin=20 %cutout=20 effcurve=MyEff P-TCurve=MyPvsT Daily=IRRAD_DIA TDaily=TEMP_DIA
New PVSystem.GD_06414e37d7db2bec76e0ba59df4913c2564b1be250c44653570ce5d4ba0289e8_1 phases=1 bus1=2412206-8904012v.1.4 conn=wye kv=0.1100 pf=1 pmpp=3.87 kva=3.87 irradiance=1 temperature=25 %cutin=20 %cutout=20 effcurve=MyEff P-TCurve=MyPvsT Daily=IRRAD_DIA TDaily=TEMP_DIA
New PVSystem.GD_06414e37d7db2bec76e0ba59df4913c2564b1be250c44653570ce5d4ba0289e8_2 phases=1 bus1=2412206-8904012v.2.4 conn=wye kv=0.1100 pf=1 pmpp=3.87 kva=3.87 irradiance=1 temperature=25 %cutin=20 %cutout=20 effcurve=MyEff P-TCurve=MyPvsT Daily=IRRAD_DIA TDaily=TEMP_DIA
New PVSystem.GD_befb765d79d1347dec597a8c870d16a563bf29c0e395ca110b5899cd636b20cd_1 phases=1 bus1=2398313-8864191v.1.4 conn=wye kv=0.1100 pf=1 pmpp=1.03 kva=1.03 irradiance=1 temperature=25 %cutin=20 %cutout=20 effcurve=MyEff P-TCurve=MyPvsT Daily=IRRAD_DIA TDaily=TEMP_DIA
New PVSystem.GD_befb765d79d1347dec597a8c870d16a563bf29c0e395ca110b5899cd636b20cd_2 phases=1 bus1=2398313-8864191v.2.4 conn=wye kv=0.1100 pf=1 pmpp=1.03 kva=1.03 irradiance=1 temperature=25 %cutin=20 %cutout=20 effcurve=MyEff P-TCurve=MyPvsT Daily=IRRAD_DIA TDaily=TEMP_DIA
New PVSystem.GD_8423576946e53444e33e147c6fee4d90106d2834a91b7dba6ed208e283ca0580_1 phases=1 bus1=2417052-8955134.1.4 conn=wye kv=0.1270 pf=1 pmpp=0.02 kva=0.10 irradiance=1 temperature=25 %cutin=20 %cutout=20 effcurve=MyEff P-TCurve=MyPvsT Daily=IRRAD_DIA TDaily=TEMP_DIA
New PVSystem.GD_8423576946e53444e33e147c6fee4d90106d2834a91b7dba6ed208e283ca0580_2 phases=1 bus1=2417052-8955134.2.4 conn=wye kv=0.1270 pf=1 pmpp=0.02 kva=0.10 irradiance=1 temperature=25 %cutin=20 %cutout=20 effcurve=MyEff P-TCurve=MyPvsT Daily=IRRAD_DIA TDaily=TEMP_DIA
New PVSystem.GD_8423576946e53444e33e147c6fee4d90106d2834a91b7dba6ed208e283ca0580_3 phases=1 bus1=2417052-8955134.3.4 conn=wye kv=0.1270 pf=1 pmpp=0.02 kva=0.10 irradiance=1 temperature=25 %cutin=20 %cutout=20 effcurve=MyEff P-TCurve=MyPvsT Daily=IRRAD_DIA TDaily=TEMP_DIA
New PVSystem.GD_bd1c3ff313686a553eb266bdec1a48fc1bd2cdfb80b2c5ff956fe85ccf30a224_1 phases=1 bus1=2417052-8955134.1.4 conn=wye kv=0.1270 pf=1 pmpp=0.96 kva=0.96 irradiance=1 temperature=25 %cutin=20 %cutout=20 effcurve=MyEff P-TCurve=MyPvsT Daily=IRRAD_DIA TDaily=TEMP_DIA
New PVSystem.GD_bd1c3ff313686a553eb266bdec1a48fc1bd2cdfb80b2c5ff956fe85ccf30a224_2 phases=1 bus1=2417052-8955134.2.4 conn=wye kv=0.1270 pf=1 pmpp=0.96 kva=0.96 irradiance=1 temperature=25 %cutin=20 %cutout=20 effcurve=MyEff P-TCurve=MyPvsT Daily=IRRAD_DIA TDaily=TEMP_DIA
New PVSystem.GD_bd1c3ff313686a553eb266bdec1a48fc1bd2cdfb80b2c5ff956fe85ccf30a224_3 phases=1 bus1=2417052-8955134.3.4 conn=wye kv=0.1270 pf=1 pmpp=0.96 kva=0.96 irradiance=1 temperature=25 %cutin=20 %cutout=20 effcurve=MyEff P-TCurve=MyPvsT Daily=IRRAD_DIA TDaily=TEMP_DIA
New PVSystem.GD_f7849b67331309d2f9b902e02d39bcf2bb34c879e739372298c0ae034b01a6ec_1 phases=1 bus1=2417052-8955134.1.4 conn=wye kv=0.1270 pf=1 pmpp=0.66 kva=0.66 irradiance=1 temperature=25 %cutin=20 %cutout=20 effcurve=MyEff P-TCurve=MyPvsT Daily=IRRAD_DIA TDaily=TEMP_DIA
New PVSystem.GD_f7849b67331309d2f9b902e02d39bcf2bb34c879e739372298c0ae034b01a6ec_2 phases=1 bus1=2417052-8955134.2.4 conn=wye kv=0.1270 pf=1 pmpp=0.66 kva=0.66 irradiance=1 temperature=25 %cutin=20 %cutout=20 effcurve=MyEff P-TCurve=MyPvsT Daily=IRRAD_DIA TDaily=TEMP_DIA
New PVSystem.GD_f7849b67331309d2f9b902e02d39bcf2bb34c879e739372298c0ae034b01a6ec_3 phases=1 bus1=2417052-8955134.3.4 conn=wye kv=0.1270 pf=1 pmpp=0.66 kva=0.66 irradiance=1 temperature=25 %cutin=20 %cutout=20 effcurve=MyEff P-TCurve=MyPvsT Daily=IRRAD_DIA TDaily=TEMP_DIA
New PVSystem.GD_d2ffa4665cf725a3bd2720d56f934ae0f7bee7860c3c110b34b42bb95cdc0685_1 phases=1 bus1=2417052-8955134.1.4 conn=wye kv=0.1270 pf=1 pmpp=1.44 kva=1.44 irradiance=1 temperature=25 %cutin=20 %cutout=20 effcurve=MyEff P-TCurve=MyPvsT Daily=IRRAD_DIA TDaily=TEMP_DIA
New PVSystem.GD_d2ffa4665cf725a3bd2720d56f934ae0f7bee7860c3c110b34b42bb95cdc0685_2 phases=1 bus1=2417052-8955134.2.4 conn=wye kv=0.1270 pf=1 pmpp=1.44 kva=1.44 irradiance=1 temperature=25 %cutin=20 %cutout=20 effcurve=MyEff P-TCurve=MyPvsT Daily=IRRAD_DIA TDaily=TEMP_DIA
New PVSystem.GD_d2ffa4665cf725a3bd2720d56f934ae0f7bee7860c3c110b34b42bb95cdc0685_3 phases=1 bus1=2417052-8955134.3.4 conn=wye kv=0.1270 pf=1 pmpp=1.44 kva=1.44 irradiance=1 temperature=25 %cutin=20 %cutout=20 effcurve=MyEff P-TCurve=MyPvsT Daily=IRRAD_DIA TDaily=TEMP_DIA
New PVSystem.GD_154dda831e16301b7d7d98fd811f1ad9b9cf820207bb8200d748067e9e11ac8b_1 phases=1 bus1=2416969-8955756.1.4 conn=wye kv=0.1270 pf=1 pmpp=2.37 kva=2.37 irradiance=1 temperature=25 %cutin=20 %cutout=20 effcurve=MyEff P-TCurve=MyPvsT Daily=IRRAD_DIA TDaily=TEMP_DIA
New PVSystem.GD_154dda831e16301b7d7d98fd811f1ad9b9cf820207bb8200d748067e9e11ac8b_2 phases=1 bus1=2416969-8955756.2.4 conn=wye kv=0.1270 pf=1 pmpp=2.37 kva=2.37 irradiance=1 temperature=25 %cutin=20 %cutout=20 effcurve=MyEff P-TCurve=MyPvsT Daily=IRRAD_DIA TDaily=TEMP_DIA
New PVSystem.GD_154dda831e16301b7d7d98fd811f1ad9b9cf820207bb8200d748067e9e11ac8b_3 phases=1 bus1=2416969-8955756.3.4 conn=wye kv=0.1270 pf=1 pmpp=2.37 kva=2.37 irradiance=1 temperature=25 %cutin=20 %cutout=20 effcurve=MyEff P-TCurve=MyPvsT Daily=IRRAD_DIA TDaily=TEMP_DIA
New PVSystem.GD_8b7f3be716987041805b2ec8fb93aa696a9171f5f0b1d5bd0034bfa2c43c3f4a_1 phases=1 bus1=2416969-8955756.1.4 conn=wye kv=0.1270 pf=1 pmpp=1.29 kva=1.29 irradiance=1 temperature=25 %cutin=20 %cutout=20 effcurve=MyEff P-TCurve=MyPvsT Daily=IRRAD_DIA TDaily=TEMP_DIA
New PVSystem.GD_8b7f3be716987041805b2ec8fb93aa696a9171f5f0b1d5bd0034bfa2c43c3f4a_2 phases=1 bus1=2416969-8955756.2.4 conn=wye kv=0.1270 pf=1 pmpp=1.29 kva=1.29 irradiance=1 temperature=25 %cutin=20 %cutout=20 effcurve=MyEff P-TCurve=MyPvsT Daily=IRRAD_DIA TDaily=TEMP_DIA
New PVSystem.GD_8b7f3be716987041805b2ec8fb93aa696a9171f5f0b1d5bd0034bfa2c43c3f4a_3 phases=1 bus1=2416969-8955756.3.4 conn=wye kv=0.1270 pf=1 pmpp=1.29 kva=1.29 irradiance=1 temperature=25 %cutin=20 %cutout=20 effcurve=MyEff P-TCurve=MyPvsT Daily=IRRAD_DIA TDaily=TEMP_DIA
New PVSystem.GD_0cbc202c653069cd59ff84be1405d76983c39d72d3936600d2127441514ceba6_1 phases=1 bus1=2416969-8955756.1.4 conn=wye kv=0.1270 pf=1 pmpp=2.22 kva=2.22 irradiance=1 temperature=25 %cutin=20 %cutout=20 effcurve=MyEff P-TCurve=MyPvsT Daily=IRRAD_DIA TDaily=TEMP_DIA
New PVSystem.GD_0cbc202c653069cd59ff84be1405d76983c39d72d3936600d2127441514ceba6_2 phases=1 bus1=2416969-8955756.2.4 conn=wye kv=0.1270 pf=1 pmpp=2.22 kva=2.22 irradiance=1 temperature=25 %cutin=20 %cutout=20 effcurve=MyEff P-TCurve=MyPvsT Daily=IRRAD_DIA TDaily=TEMP_DIA
New PVSystem.GD_0cbc202c653069cd59ff84be1405d76983c39d72d3936600d2127441514ceba6_3 phases=1 bus1=2416969-8955756.3.4 conn=wye kv=0.1270 pf=1 pmpp=2.22 kva=2.22 irradiance=1 temperature=25 %cutin=20 %cutout=20 effcurve=MyEff P-TCurve=MyPvsT Daily=IRRAD_DIA TDaily=TEMP_DIA
New PVSystem.GD_4549d3090250d051ca27e36198fc468b369af663c1fc6905c5bb3a5992cb4ef7_1 phases=1 bus1=2417040-8956308.1.4 conn=wye kv=0.1270 pf=1 pmpp=0.88 kva=0.88 irradiance=1 temperature=25 %cutin=20 %cutout=20 effcurve=MyEff P-TCurve=MyPvsT Daily=IRRAD_DIA TDaily=TEMP_DIA
New PVSystem.GD_4549d3090250d051ca27e36198fc468b369af663c1fc6905c5bb3a5992cb4ef7_2 phases=1 bus1=2417040-8956308.2.4 conn=wye kv=0.1270 pf=1 pmpp=0.88 kva=0.88 irradiance=1 temperature=25 %cutin=20 %cutout=20 effcurve=MyEff P-TCurve=MyPvsT Daily=IRRAD_DIA TDaily=TEMP_DIA
New PVSystem.GD_4549d3090250d051ca27e36198fc468b369af663c1fc6905c5bb3a5992cb4ef7_3 phases=1 bus1=2417040-8956308.3.4 conn=wye kv=0.1270 pf=1 pmpp=0.88 kva=0.88 irradiance=1 temperature=25 %cutin=20 %cutout=20 effcurve=MyEff P-TCurve=MyPvsT Daily=IRRAD_DIA TDaily=TEMP_DIA
New PVSystem.GD_9beb547f29a50c20fb562e402d4bf29f18762649f6037215e9b560c2d70068d1_1 phases=1 bus1=2417040-8956308.1.4 conn=wye kv=0.1270 pf=1 pmpp=0.93 kva=0.93 irradiance=1 temperature=25 %cutin=20 %cutout=20 effcurve=MyEff P-TCurve=MyPvsT Daily=IRRAD_DIA TDaily=TEMP_DIA
New PVSystem.GD_9beb547f29a50c20fb562e402d4bf29f18762649f6037215e9b560c2d70068d1_2 phases=1 bus1=2417040-8956308.2.4 conn=wye kv=0.1270 pf=1 pmpp=0.93 kva=0.93 irradiance=1 temperature=25 %cutin=20 %cutout=20 effcurve=MyEff P-TCurve=MyPvsT Daily=IRRAD_DIA TDaily=TEMP_DIA
New PVSystem.GD_9beb547f29a50c20fb562e402d4bf29f18762649f6037215e9b560c2d70068d1_3 phases=1 bus1=2417040-8956308.3.4 conn=wye kv=0.1270 pf=1 pmpp=0.93 kva=0.93 irradiance=1 temperature=25 %cutin=20 %cutout=20 effcurve=MyEff P-TCurve=MyPvsT Daily=IRRAD_DIA TDaily=TEMP_DIA
New PVSystem.GD_7d40dff0b8712457ffbfc408b02e4ab53cafaef68c9d4347c81089d22af43c0a_1 phases=1 bus1=2417040-8956308.1.4 conn=wye kv=0.1270 pf=1 pmpp=0.96 kva=0.96 irradiance=1 temperature=25 %cutin=20 %cutout=20 effcurve=MyEff P-TCurve=MyPvsT Daily=IRRAD_DIA TDaily=TEMP_DIA
New PVSystem.GD_7d40dff0b8712457ffbfc408b02e4ab53cafaef68c9d4347c81089d22af43c0a_2 phases=1 bus1=2417040-8956308.2.4 conn=wye kv=0.1270 pf=1 pmpp=0.96 kva=0.96 irradiance=1 temperature=25 %cutin=20 %cutout=20 effcurve=MyEff P-TCurve=MyPvsT Daily=IRRAD_DIA TDaily=TEMP_DIA
New PVSystem.GD_7d40dff0b8712457ffbfc408b02e4ab53cafaef68c9d4347c81089d22af43c0a_3 phases=1 bus1=2417040-8956308.3.4 conn=wye kv=0.1270 pf=1 pmpp=0.96 kva=0.96 irradiance=1 temperature=25 %cutin=20 %cutout=20 effcurve=MyEff P-TCurve=MyPvsT Daily=IRRAD_DIA TDaily=TEMP_DIA
New PVSystem.GD_841dd065908703469c5af68a03830c3189e6c65df900ccd6d4c1faf8739146a7_1 phases=1 bus1=2417040-8956308.1.4 conn=wye kv=0.1270 pf=1 pmpp=0.44 kva=0.44 irradiance=1 temperature=25 %cutin=20 %cutout=20 effcurve=MyEff P-TCurve=MyPvsT Daily=IRRAD_DIA TDaily=TEMP_DIA
New PVSystem.GD_841dd065908703469c5af68a03830c3189e6c65df900ccd6d4c1faf8739146a7_2 phases=1 bus1=2417040-8956308.2.4 conn=wye kv=0.1270 pf=1 pmpp=0.44 kva=0.44 irradiance=1 temperature=25 %cutin=20 %cutout=20 effcurve=MyEff P-TCurve=MyPvsT Daily=IRRAD_DIA TDaily=TEMP_DIA
New PVSystem.GD_841dd065908703469c5af68a03830c3189e6c65df900ccd6d4c1faf8739146a7_3 phases=1 bus1=2417040-8956308.3.4 conn=wye kv=0.1270 pf=1 pmpp=0.44 kva=0.44 irradiance=1 temperature=25 %cutin=20 %cutout=20 effcurve=MyEff P-TCurve=MyPvsT Daily=IRRAD_DIA TDaily=TEMP_DIA
New PVSystem.GD_9dc58692f2e8bd3488d21b9df0011c6b25b95c533803177c49a0103275ab46b3_1 phases=1 bus1=2416980-8955642.1.4 conn=wye kv=0.1270 pf=1 pmpp=0.11 kva=0.11 irradiance=1 temperature=25 %cutin=20 %cutout=20 effcurve=MyEff P-TCurve=MyPvsT Daily=IRRAD_DIA TDaily=TEMP_DIA
New PVSystem.GD_9dc58692f2e8bd3488d21b9df0011c6b25b95c533803177c49a0103275ab46b3_2 phases=1 bus1=2416980-8955642.2.4 conn=wye kv=0.1270 pf=1 pmpp=0.11 kva=0.11 irradiance=1 temperature=25 %cutin=20 %cutout=20 effcurve=MyEff P-TCurve=MyPvsT Daily=IRRAD_DIA TDaily=TEMP_DIA
New PVSystem.GD_9dc58692f2e8bd3488d21b9df0011c6b25b95c533803177c49a0103275ab46b3_3 phases=1 bus1=2416980-8955642.3.4 conn=wye kv=0.1270 pf=1 pmpp=0.11 kva=0.11 irradiance=1 temperature=25 %cutin=20 %cutout=20 effcurve=MyEff P-TCurve=MyPvsT Daily=IRRAD_DIA TDaily=TEMP_DIA
New PVSystem.GD_13e47cdd9874c913a3a687370a3ffe9c3b4b1d1616be210a5ac4aecb734fdb2d_1 phases=1 bus1=2416980-8955642.1.4 conn=wye kv=0.1270 pf=1 pmpp=3.48 kva=3.48 irradiance=1 temperature=25 %cutin=20 %cutout=20 effcurve=MyEff P-TCurve=MyPvsT Daily=IRRAD_DIA TDaily=TEMP_DIA
New PVSystem.GD_13e47cdd9874c913a3a687370a3ffe9c3b4b1d1616be210a5ac4aecb734fdb2d_2 phases=1 bus1=2416980-8955642.2.4 conn=wye kv=0.1270 pf=1 pmpp=3.48 kva=3.48 irradiance=1 temperature=25 %cutin=20 %cutout=20 effcurve=MyEff P-TCurve=MyPvsT Daily=IRRAD_DIA TDaily=TEMP_DIA
New PVSystem.GD_13e47cdd9874c913a3a687370a3ffe9c3b4b1d1616be210a5ac4aecb734fdb2d_3 phases=1 bus1=2416980-8955642.3.4 conn=wye kv=0.1270 pf=1 pmpp=3.48 kva=3.48 irradiance=1 temperature=25 %cutin=20 %cutout=20 effcurve=MyEff P-TCurve=MyPvsT Daily=IRRAD_DIA TDaily=TEMP_DIA
New PVSystem.GD_468e474e1df9d6ca8a430a3edd9ed29e0b3ce576dce0ceb531a59c62270df9d6_1 phases=1 bus1=2416980-8955642.1.4 conn=wye kv=0.1270 pf=1 pmpp=2.09 kva=2.09 irradiance=1 temperature=25 %cutin=20 %cutout=20 effcurve=MyEff P-TCurve=MyPvsT Daily=IRRAD_DIA TDaily=TEMP_DIA
New PVSystem.GD_468e474e1df9d6ca8a430a3edd9ed29e0b3ce576dce0ceb531a59c62270df9d6_2 phases=1 bus1=2416980-8955642.2.4 conn=wye kv=0.1270 pf=1 pmpp=2.09 kva=2.09 irradiance=1 temperature=25 %cutin=20 %cutout=20 effcurve=MyEff P-TCurve=MyPvsT Daily=IRRAD_DIA TDaily=TEMP_DIA
New PVSystem.GD_468e474e1df9d6ca8a430a3edd9ed29e0b3ce576dce0ceb531a59c62270df9d6_3 phases=1 bus1=2416980-8955642.3.4 conn=wye kv=0.1270 pf=1 pmpp=2.09 kva=2.09 irradiance=1 temperature=25 %cutin=20 %cutout=20 effcurve=MyEff P-TCurve=MyPvsT Daily=IRRAD_DIA TDaily=TEMP_DIA
New PVSystem.GD_b52ff70da31d6b5c98e693bd7e099df1b867dc578970d5688b4fa21672736bd0_1 phases=1 bus1=2416980-8955642.1.4 conn=wye kv=0.1270 pf=1 pmpp=0.01 kva=0.10 irradiance=1 temperature=25 %cutin=20 %cutout=20 effcurve=MyEff P-TCurve=MyPvsT Daily=IRRAD_DIA TDaily=TEMP_DIA
New PVSystem.GD_b52ff70da31d6b5c98e693bd7e099df1b867dc578970d5688b4fa21672736bd0_2 phases=1 bus1=2416980-8955642.2.4 conn=wye kv=0.1270 pf=1 pmpp=0.01 kva=0.10 irradiance=1 temperature=25 %cutin=20 %cutout=20 effcurve=MyEff P-TCurve=MyPvsT Daily=IRRAD_DIA TDaily=TEMP_DIA
New PVSystem.GD_b52ff70da31d6b5c98e693bd7e099df1b867dc578970d5688b4fa21672736bd0_3 phases=1 bus1=2416980-8955642.3.4 conn=wye kv=0.1270 pf=1 pmpp=0.01 kva=0.10 irradiance=1 temperature=25 %cutin=20 %cutout=20 effcurve=MyEff P-TCurve=MyPvsT Daily=IRRAD_DIA TDaily=TEMP_DIA
New PVSystem.GD_ecc38431873641acc2a6fcd80da025c2b8e4ef100576b6267c06639d3f74b308_1 phases=1 bus1=2416980-8955642.1.4 conn=wye kv=0.1270 pf=1 pmpp=1.22 kva=1.22 irradiance=1 temperature=25 %cutin=20 %cutout=20 effcurve=MyEff P-TCurve=MyPvsT Daily=IRRAD_DIA TDaily=TEMP_DIA
New PVSystem.GD_ecc38431873641acc2a6fcd80da025c2b8e4ef100576b6267c06639d3f74b308_2 phases=1 bus1=2416980-8955642.2.4 conn=wye kv=0.1270 pf=1 pmpp=1.22 kva=1.22 irradiance=1 temperature=25 %cutin=20 %cutout=20 effcurve=MyEff P-TCurve=MyPvsT Daily=IRRAD_DIA TDaily=TEMP_DIA
New PVSystem.GD_ecc38431873641acc2a6fcd80da025c2b8e4ef100576b6267c06639d3f74b308_3 phases=1 bus1=2416980-8955642.3.4 conn=wye kv=0.1270 pf=1 pmpp=1.22 kva=1.22 irradiance=1 temperature=25 %cutin=20 %cutout=20 effcurve=MyEff P-TCurve=MyPvsT Daily=IRRAD_DIA TDaily=TEMP_DIA
New PVSystem.GD_94b143010a96f62ab3158ec64ef2b89f03686a719a17d0611486b63c6655143d_1 phases=1 bus1=2416980-8955642.1.4 conn=wye kv=0.1270 pf=1 pmpp=0.36 kva=0.36 irradiance=1 temperature=25 %cutin=20 %cutout=20 effcurve=MyEff P-TCurve=MyPvsT Daily=IRRAD_DIA TDaily=TEMP_DIA
New PVSystem.GD_94b143010a96f62ab3158ec64ef2b89f03686a719a17d0611486b63c6655143d_2 phases=1 bus1=2416980-8955642.2.4 conn=wye kv=0.1270 pf=1 pmpp=0.36 kva=0.36 irradiance=1 temperature=25 %cutin=20 %cutout=20 effcurve=MyEff P-TCurve=MyPvsT Daily=IRRAD_DIA TDaily=TEMP_DIA
New PVSystem.GD_94b143010a96f62ab3158ec64ef2b89f03686a719a17d0611486b63c6655143d_3 phases=1 bus1=2416980-8955642.3.4 conn=wye kv=0.1270 pf=1 pmpp=0.36 kva=0.36 irradiance=1 temperature=25 %cutin=20 %cutout=20 effcurve=MyEff P-TCurve=MyPvsT Daily=IRRAD_DIA TDaily=TEMP_DIA
New PVSystem.GD_6fddf3f5525009de032375d503e680eeb9f3492519d0fe61d4f9c349c8fb4fa8_1 phases=1 bus1=2416980-8955642.1.4 conn=wye kv=0.1270 pf=1 pmpp=1.29 kva=1.29 irradiance=1 temperature=25 %cutin=20 %cutout=20 effcurve=MyEff P-TCurve=MyPvsT Daily=IRRAD_DIA TDaily=TEMP_DIA
New PVSystem.GD_6fddf3f5525009de032375d503e680eeb9f3492519d0fe61d4f9c349c8fb4fa8_2 phases=1 bus1=2416980-8955642.2.4 conn=wye kv=0.1270 pf=1 pmpp=1.29 kva=1.29 irradiance=1 temperature=25 %cutin=20 %cutout=20 effcurve=MyEff P-TCurve=MyPvsT Daily=IRRAD_DIA TDaily=TEMP_DIA
New PVSystem.GD_6fddf3f5525009de032375d503e680eeb9f3492519d0fe61d4f9c349c8fb4fa8_3 phases=1 bus1=2416980-8955642.3.4 conn=wye kv=0.1270 pf=1 pmpp=1.29 kva=1.29 irradiance=1 temperature=25 %cutin=20 %cutout=20 effcurve=MyEff P-TCurve=MyPvsT Daily=IRRAD_DIA TDaily=TEMP_DIA
New PVSystem.GD_c20759be6a286dc2cbabd9cd45fc8b4792b23ca8cc1aaeda44552e52e5f950ef_1 phases=1 bus1=2416980-8955642.1.4 conn=wye kv=0.1270 pf=1 pmpp=1.02 kva=1.02 irradiance=1 temperature=25 %cutin=20 %cutout=20 effcurve=MyEff P-TCurve=MyPvsT Daily=IRRAD_DIA TDaily=TEMP_DIA
New PVSystem.GD_c20759be6a286dc2cbabd9cd45fc8b4792b23ca8cc1aaeda44552e52e5f950ef_2 phases=1 bus1=2416980-8955642.2.4 conn=wye kv=0.1270 pf=1 pmpp=1.02 kva=1.02 irradiance=1 temperature=25 %cutin=20 %cutout=20 effcurve=MyEff P-TCurve=MyPvsT Daily=IRRAD_DIA TDaily=TEMP_DIA
New PVSystem.GD_c20759be6a286dc2cbabd9cd45fc8b4792b23ca8cc1aaeda44552e52e5f950ef_3 phases=1 bus1=2416980-8955642.3.4 conn=wye kv=0.1270 pf=1 pmpp=1.02 kva=1.02 irradiance=1 temperature=25 %cutin=20 %cutout=20 effcurve=MyEff P-TCurve=MyPvsT Daily=IRRAD_DIA TDaily=TEMP_DIA
New PVSystem.GD_8eca281f45c64eb1daa826a5f887997723469c26d222219b4dc14c5c8d850bb7_1 phases=1 bus1=2416980-8955642.1.4 conn=wye kv=0.1270 pf=1 pmpp=1.16 kva=1.16 irradiance=1 temperature=25 %cutin=20 %cutout=20 effcurve=MyEff P-TCurve=MyPvsT Daily=IRRAD_DIA TDaily=TEMP_DIA
New PVSystem.GD_8eca281f45c64eb1daa826a5f887997723469c26d222219b4dc14c5c8d850bb7_2 phases=1 bus1=2416980-8955642.2.4 conn=wye kv=0.1270 pf=1 pmpp=1.16 kva=1.16 irradiance=1 temperature=25 %cutin=20 %cutout=20 effcurve=MyEff P-TCurve=MyPvsT Daily=IRRAD_DIA TDaily=TEMP_DIA
New PVSystem.GD_8eca281f45c64eb1daa826a5f887997723469c26d222219b4dc14c5c8d850bb7_3 phases=1 bus1=2416980-8955642.3.4 conn=wye kv=0.1270 pf=1 pmpp=1.16 kva=1.16 irradiance=1 temperature=25 %cutin=20 %cutout=20 effcurve=MyEff P-TCurve=MyPvsT Daily=IRRAD_DIA TDaily=TEMP_DIA
New PVSystem.GD_515b8cefa532ee7662a46d46167f256b264e9ea541deaab1b627bcda66426e57_1 phases=1 bus1=2416980-8955642.1.4 conn=wye kv=0.1270 pf=1 pmpp=0.78 kva=0.78 irradiance=1 temperature=25 %cutin=20 %cutout=20 effcurve=MyEff P-TCurve=MyPvsT Daily=IRRAD_DIA TDaily=TEMP_DIA
New PVSystem.GD_515b8cefa532ee7662a46d46167f256b264e9ea541deaab1b627bcda66426e57_2 phases=1 bus1=2416980-8955642.2.4 conn=wye kv=0.1270 pf=1 pmpp=0.78 kva=0.78 irradiance=1 temperature=25 %cutin=20 %cutout=20 effcurve=MyEff P-TCurve=MyPvsT Daily=IRRAD_DIA TDaily=TEMP_DIA
New PVSystem.GD_515b8cefa532ee7662a46d46167f256b264e9ea541deaab1b627bcda66426e57_3 phases=1 bus1=2416980-8955642.3.4 conn=wye kv=0.1270 pf=1 pmpp=0.78 kva=0.78 irradiance=1 temperature=25 %cutin=20 %cutout=20 effcurve=MyEff P-TCurve=MyPvsT Daily=IRRAD_DIA TDaily=TEMP_DIA
New PVSystem.GD_67d7983146f27a2151822762883be880d25e2acad0a51d2ec9596253d70368e2_1 phases=1 bus1=2416980-8955642.1.4 conn=wye kv=0.1270 pf=1 pmpp=0.45 kva=0.45 irradiance=1 temperature=25 %cutin=20 %cutout=20 effcurve=MyEff P-TCurve=MyPvsT Daily=IRRAD_DIA TDaily=TEMP_DIA
New PVSystem.GD_67d7983146f27a2151822762883be880d25e2acad0a51d2ec9596253d70368e2_2 phases=1 bus1=2416980-8955642.2.4 conn=wye kv=0.1270 pf=1 pmpp=0.45 kva=0.45 irradiance=1 temperature=25 %cutin=20 %cutout=20 effcurve=MyEff P-TCurve=MyPvsT Daily=IRRAD_DIA TDaily=TEMP_DIA
New PVSystem.GD_67d7983146f27a2151822762883be880d25e2acad0a51d2ec9596253d70368e2_3 phases=1 bus1=2416980-8955642.3.4 conn=wye kv=0.1270 pf=1 pmpp=0.45 kva=0.45 irradiance=1 temperature=25 %cutin=20 %cutout=20 effcurve=MyEff P-TCurve=MyPvsT Daily=IRRAD_DIA TDaily=TEMP_DIA
New PVSystem.GD_dfe43da1e79a26efcf3e93f4426e264f287a6eca53a0603baeb83ff66fd6d1d0_1 phases=1 bus1=2416980-8955642.1.4 conn=wye kv=0.1270 pf=1 pmpp=0.93 kva=0.93 irradiance=1 temperature=25 %cutin=20 %cutout=20 effcurve=MyEff P-TCurve=MyPvsT Daily=IRRAD_DIA TDaily=TEMP_DIA
New PVSystem.GD_dfe43da1e79a26efcf3e93f4426e264f287a6eca53a0603baeb83ff66fd6d1d0_2 phases=1 bus1=2416980-8955642.2.4 conn=wye kv=0.1270 pf=1 pmpp=0.93 kva=0.93 irradiance=1 temperature=25 %cutin=20 %cutout=20 effcurve=MyEff P-TCurve=MyPvsT Daily=IRRAD_DIA TDaily=TEMP_DIA
New PVSystem.GD_dfe43da1e79a26efcf3e93f4426e264f287a6eca53a0603baeb83ff66fd6d1d0_3 phases=1 bus1=2416980-8955642.3.4 conn=wye kv=0.1270 pf=1 pmpp=0.93 kva=0.93 irradiance=1 temperature=25 %cutin=20 %cutout=20 effcurve=MyEff P-TCurve=MyPvsT Daily=IRRAD_DIA TDaily=TEMP_DIA
New PVSystem.GD_ea7b8f21507250ff2fd40f8e34e7393e6c76155a626e44e990788220eec46410_1 phases=1 bus1=2416980-8955642.1.4 conn=wye kv=0.1270 pf=1 pmpp=1.76 kva=1.76 irradiance=1 temperature=25 %cutin=20 %cutout=20 effcurve=MyEff P-TCurve=MyPvsT Daily=IRRAD_DIA TDaily=TEMP_DIA
New PVSystem.GD_ea7b8f21507250ff2fd40f8e34e7393e6c76155a626e44e990788220eec46410_2 phases=1 bus1=2416980-8955642.2.4 conn=wye kv=0.1270 pf=1 pmpp=1.76 kva=1.76 irradiance=1 temperature=25 %cutin=20 %cutout=20 effcurve=MyEff P-TCurve=MyPvsT Daily=IRRAD_DIA TDaily=TEMP_DIA
New PVSystem.GD_ea7b8f21507250ff2fd40f8e34e7393e6c76155a626e44e990788220eec46410_3 phases=1 bus1=2416980-8955642.3.4 conn=wye kv=0.1270 pf=1 pmpp=1.76 kva=1.76 irradiance=1 temperature=25 %cutin=20 %cutout=20 effcurve=MyEff P-TCurve=MyPvsT Daily=IRRAD_DIA TDaily=TEMP_DIA
New PVSystem.GD_e3aff570168288178f7c1071ab00b4f804ef7f7fc32dccd7df4a5c57f10bc57a_1 phases=1 bus1=2416980-8955642.1.4 conn=wye kv=0.1270 pf=1 pmpp=0.47 kva=0.47 irradiance=1 temperature=25 %cutin=20 %cutout=20 effcurve=MyEff P-TCurve=MyPvsT Daily=IRRAD_DIA TDaily=TEMP_DIA
New PVSystem.GD_e3aff570168288178f7c1071ab00b4f804ef7f7fc32dccd7df4a5c57f10bc57a_2 phases=1 bus1=2416980-8955642.2.4 conn=wye kv=0.1270 pf=1 pmpp=0.47 kva=0.47 irradiance=1 temperature=25 %cutin=20 %cutout=20 effcurve=MyEff P-TCurve=MyPvsT Daily=IRRAD_DIA TDaily=TEMP_DIA
New PVSystem.GD_e3aff570168288178f7c1071ab00b4f804ef7f7fc32dccd7df4a5c57f10bc57a_3 phases=1 bus1=2416980-8955642.3.4 conn=wye kv=0.1270 pf=1 pmpp=0.47 kva=0.47 irradiance=1 temperature=25 %cutin=20 %cutout=20 effcurve=MyEff P-TCurve=MyPvsT Daily=IRRAD_DIA TDaily=TEMP_DIA
New PVSystem.GD_98fa0f21d88eaeb3d7a48c19ba88856f238078f54acfc26680083e86cbe321b5_1 phases=1 bus1=2395624-8840887.1.4 conn=wye kv=0.1270 pf=1 pmpp=0.84 kva=0.84 irradiance=1 temperature=25 %cutin=20 %cutout=20 effcurve=MyEff P-TCurve=MyPvsT Daily=IRRAD_DIA TDaily=TEMP_DIA
New PVSystem.GD_98fa0f21d88eaeb3d7a48c19ba88856f238078f54acfc26680083e86cbe321b5_2 phases=1 bus1=2395624-8840887.2.4 conn=wye kv=0.1270 pf=1 pmpp=0.84 kva=0.84 irradiance=1 temperature=25 %cutin=20 %cutout=20 effcurve=MyEff P-TCurve=MyPvsT Daily=IRRAD_DIA TDaily=TEMP_DIA
New PVSystem.GD_98fa0f21d88eaeb3d7a48c19ba88856f238078f54acfc26680083e86cbe321b5_3 phases=1 bus1=2395624-8840887.3.4 conn=wye kv=0.1270 pf=1 pmpp=0.84 kva=0.84 irradiance=1 temperature=25 %cutin=20 %cutout=20 effcurve=MyEff P-TCurve=MyPvsT Daily=IRRAD_DIA TDaily=TEMP_DIA
New PVSystem.GD_6e44b2b3c22878b100143ed9f218d3c879a8e33eb7304ab9802475705a6d7c3f_1 phases=1 bus1=2395624-8840887.1.4 conn=wye kv=0.1270 pf=1 pmpp=5.50 kva=5.50 irradiance=1 temperature=25 %cutin=20 %cutout=20 effcurve=MyEff P-TCurve=MyPvsT Daily=IRRAD_DIA TDaily=TEMP_DIA
New PVSystem.GD_6e44b2b3c22878b100143ed9f218d3c879a8e33eb7304ab9802475705a6d7c3f_2 phases=1 bus1=2395624-8840887.2.4 conn=wye kv=0.1270 pf=1 pmpp=5.50 kva=5.50 irradiance=1 temperature=25 %cutin=20 %cutout=20 effcurve=MyEff P-TCurve=MyPvsT Daily=IRRAD_DIA TDaily=TEMP_DIA
New PVSystem.GD_6e44b2b3c22878b100143ed9f218d3c879a8e33eb7304ab9802475705a6d7c3f_3 phases=1 bus1=2395624-8840887.3.4 conn=wye kv=0.1270 pf=1 pmpp=5.50 kva=5.50 irradiance=1 temperature=25 %cutin=20 %cutout=20 effcurve=MyEff P-TCurve=MyPvsT Daily=IRRAD_DIA TDaily=TEMP_DIA
New PVSystem.GD_cd73f3c726d856f992d13cb327d9a42bd8e332b2ff7e597bad33942a582f771a_1 phases=1 bus1=2395624-8840887.1.4 conn=wye kv=0.1270 pf=1 pmpp=0.36 kva=0.36 irradiance=1 temperature=25 %cutin=20 %cutout=20 effcurve=MyEff P-TCurve=MyPvsT Daily=IRRAD_DIA TDaily=TEMP_DIA
New PVSystem.GD_cd73f3c726d856f992d13cb327d9a42bd8e332b2ff7e597bad33942a582f771a_2 phases=1 bus1=2395624-8840887.2.4 conn=wye kv=0.1270 pf=1 pmpp=0.36 kva=0.36 irradiance=1 temperature=25 %cutin=20 %cutout=20 effcurve=MyEff P-TCurve=MyPvsT Daily=IRRAD_DIA TDaily=TEMP_DIA
New PVSystem.GD_cd73f3c726d856f992d13cb327d9a42bd8e332b2ff7e597bad33942a582f771a_3 phases=1 bus1=2395624-8840887.3.4 conn=wye kv=0.1270 pf=1 pmpp=0.36 kva=0.36 irradiance=1 temperature=25 %cutin=20 %cutout=20 effcurve=MyEff P-TCurve=MyPvsT Daily=IRRAD_DIA TDaily=TEMP_DIA
New PVSystem.GD_3bd3d7221fd26e3dc5301617a89f354d0b9b4a33b8305f641a8b349415e8ca7b_1 phases=1 bus1=2395624-8840887.1.4 conn=wye kv=0.1270 pf=1 pmpp=0.72 kva=0.72 irradiance=1 temperature=25 %cutin=20 %cutout=20 effcurve=MyEff P-TCurve=MyPvsT Daily=IRRAD_DIA TDaily=TEMP_DIA
New PVSystem.GD_3bd3d7221fd26e3dc5301617a89f354d0b9b4a33b8305f641a8b349415e8ca7b_2 phases=1 bus1=2395624-8840887.2.4 conn=wye kv=0.1270 pf=1 pmpp=0.72 kva=0.72 irradiance=1 temperature=25 %cutin=20 %cutout=20 effcurve=MyEff P-TCurve=MyPvsT Daily=IRRAD_DIA TDaily=TEMP_DIA
New PVSystem.GD_3bd3d7221fd26e3dc5301617a89f354d0b9b4a33b8305f641a8b349415e8ca7b_3 phases=1 bus1=2395624-8840887.3.4 conn=wye kv=0.1270 pf=1 pmpp=0.72 kva=0.72 irradiance=1 temperature=25 %cutin=20 %cutout=20 effcurve=MyEff P-TCurve=MyPvsT Daily=IRRAD_DIA TDaily=TEMP_DIA
New PVSystem.GD_beecf08c06c61ecd0e0c204fc60be23a9ba472b26d94bd3520e22099d372981f_1 phases=1 bus1=2395624-8840887.1.4 conn=wye kv=0.1270 pf=1 pmpp=1.34 kva=1.34 irradiance=1 temperature=25 %cutin=20 %cutout=20 effcurve=MyEff P-TCurve=MyPvsT Daily=IRRAD_DIA TDaily=TEMP_DIA
New PVSystem.GD_beecf08c06c61ecd0e0c204fc60be23a9ba472b26d94bd3520e22099d372981f_2 phases=1 bus1=2395624-8840887.2.4 conn=wye kv=0.1270 pf=1 pmpp=1.34 kva=1.34 irradiance=1 temperature=25 %cutin=20 %cutout=20 effcurve=MyEff P-TCurve=MyPvsT Daily=IRRAD_DIA TDaily=TEMP_DIA
New PVSystem.GD_beecf08c06c61ecd0e0c204fc60be23a9ba472b26d94bd3520e22099d372981f_3 phases=1 bus1=2395624-8840887.3.4 conn=wye kv=0.1270 pf=1 pmpp=1.34 kva=1.34 irradiance=1 temperature=25 %cutin=20 %cutout=20 effcurve=MyEff P-TCurve=MyPvsT Daily=IRRAD_DIA TDaily=TEMP_DIA
New PVSystem.GD_237920b99632e3acaa7cb6c659ac9d7627369955994f03f47b632d9fe82708f7_1 phases=1 bus1=2395624-8840887.1.4 conn=wye kv=0.1270 pf=1 pmpp=0.62 kva=0.62 irradiance=1 temperature=25 %cutin=20 %cutout=20 effcurve=MyEff P-TCurve=MyPvsT Daily=IRRAD_DIA TDaily=TEMP_DIA
New PVSystem.GD_237920b99632e3acaa7cb6c659ac9d7627369955994f03f47b632d9fe82708f7_2 phases=1 bus1=2395624-8840887.2.4 conn=wye kv=0.1270 pf=1 pmpp=0.62 kva=0.62 irradiance=1 temperature=25 %cutin=20 %cutout=20 effcurve=MyEff P-TCurve=MyPvsT Daily=IRRAD_DIA TDaily=TEMP_DIA
New PVSystem.GD_237920b99632e3acaa7cb6c659ac9d7627369955994f03f47b632d9fe82708f7_3 phases=1 bus1=2395624-8840887.3.4 conn=wye kv=0.1270 pf=1 pmpp=0.62 kva=0.62 irradiance=1 temperature=25 %cutin=20 %cutout=20 effcurve=MyEff P-TCurve=MyPvsT Daily=IRRAD_DIA TDaily=TEMP_DIA
New PVSystem.GD_50a74d6e380608f4744fcee459bd25fc29235f22761c61ee2c7247b7d62fedf0_1 phases=1 bus1=2395624-8840887.1.4 conn=wye kv=0.1270 pf=1 pmpp=0.94 kva=0.94 irradiance=1 temperature=25 %cutin=20 %cutout=20 effcurve=MyEff P-TCurve=MyPvsT Daily=IRRAD_DIA TDaily=TEMP_DIA
New PVSystem.GD_50a74d6e380608f4744fcee459bd25fc29235f22761c61ee2c7247b7d62fedf0_2 phases=1 bus1=2395624-8840887.2.4 conn=wye kv=0.1270 pf=1 pmpp=0.94 kva=0.94 irradiance=1 temperature=25 %cutin=20 %cutout=20 effcurve=MyEff P-TCurve=MyPvsT Daily=IRRAD_DIA TDaily=TEMP_DIA
New PVSystem.GD_50a74d6e380608f4744fcee459bd25fc29235f22761c61ee2c7247b7d62fedf0_3 phases=1 bus1=2395624-8840887.3.4 conn=wye kv=0.1270 pf=1 pmpp=0.94 kva=0.94 irradiance=1 temperature=25 %cutin=20 %cutout=20 effcurve=MyEff P-TCurve=MyPvsT Daily=IRRAD_DIA TDaily=TEMP_DIA
New PVSystem.GD_444d0997424a4bd52ec12e8bbbbdbfd29842f4a93e91ab944f8559395ae36156_1 phases=1 bus1=2395624-8840887.1.4 conn=wye kv=0.1270 pf=1 pmpp=2.33 kva=2.33 irradiance=1 temperature=25 %cutin=20 %cutout=20 effcurve=MyEff P-TCurve=MyPvsT Daily=IRRAD_DIA TDaily=TEMP_DIA
New PVSystem.GD_444d0997424a4bd52ec12e8bbbbdbfd29842f4a93e91ab944f8559395ae36156_2 phases=1 bus1=2395624-8840887.2.4 conn=wye kv=0.1270 pf=1 pmpp=2.33 kva=2.33 irradiance=1 temperature=25 %cutin=20 %cutout=20 effcurve=MyEff P-TCurve=MyPvsT Daily=IRRAD_DIA TDaily=TEMP_DIA
New PVSystem.GD_444d0997424a4bd52ec12e8bbbbdbfd29842f4a93e91ab944f8559395ae36156_3 phases=1 bus1=2395624-8840887.3.4 conn=wye kv=0.1270 pf=1 pmpp=2.33 kva=2.33 irradiance=1 temperature=25 %cutin=20 %cutout=20 effcurve=MyEff P-TCurve=MyPvsT Daily=IRRAD_DIA TDaily=TEMP_DIA
New PVSystem.GD_856e78242008f7ee1a0f553f033a92dd1dc84b2aaf52f013cd1d515d92486601_1 phases=1 bus1=2395624-8840887.1.4 conn=wye kv=0.1270 pf=1 pmpp=1.70 kva=1.70 irradiance=1 temperature=25 %cutin=20 %cutout=20 effcurve=MyEff P-TCurve=MyPvsT Daily=IRRAD_DIA TDaily=TEMP_DIA
New PVSystem.GD_856e78242008f7ee1a0f553f033a92dd1dc84b2aaf52f013cd1d515d92486601_2 phases=1 bus1=2395624-8840887.2.4 conn=wye kv=0.1270 pf=1 pmpp=1.70 kva=1.70 irradiance=1 temperature=25 %cutin=20 %cutout=20 effcurve=MyEff P-TCurve=MyPvsT Daily=IRRAD_DIA TDaily=TEMP_DIA
New PVSystem.GD_856e78242008f7ee1a0f553f033a92dd1dc84b2aaf52f013cd1d515d92486601_3 phases=1 bus1=2395624-8840887.3.4 conn=wye kv=0.1270 pf=1 pmpp=1.70 kva=1.70 irradiance=1 temperature=25 %cutin=20 %cutout=20 effcurve=MyEff P-TCurve=MyPvsT Daily=IRRAD_DIA TDaily=TEMP_DIA
New PVSystem.GD_45dda2677c6877ac819bc7fda77dd56ec8d8dd5778ddbbc064cbb7ba2ec1d474_1 phases=1 bus1=2417061-8955483.1.4 conn=wye kv=0.1270 pf=1 pmpp=3.00 kva=3.00 irradiance=1 temperature=25 %cutin=20 %cutout=20 effcurve=MyEff P-TCurve=MyPvsT Daily=IRRAD_DIA TDaily=TEMP_DIA
New PVSystem.GD_45dda2677c6877ac819bc7fda77dd56ec8d8dd5778ddbbc064cbb7ba2ec1d474_2 phases=1 bus1=2417061-8955483.2.4 conn=wye kv=0.1270 pf=1 pmpp=3.00 kva=3.00 irradiance=1 temperature=25 %cutin=20 %cutout=20 effcurve=MyEff P-TCurve=MyPvsT Daily=IRRAD_DIA TDaily=TEMP_DIA
New PVSystem.GD_45dda2677c6877ac819bc7fda77dd56ec8d8dd5778ddbbc064cbb7ba2ec1d474_3 phases=1 bus1=2417061-8955483.3.4 conn=wye kv=0.1270 pf=1 pmpp=3.00 kva=3.00 irradiance=1 temperature=25 %cutin=20 %cutout=20 effcurve=MyEff P-TCurve=MyPvsT Daily=IRRAD_DIA TDaily=TEMP_DIA
New PVSystem.GD_d9fd718af56c64eb81e19bc49729ec9d5c13f71960368269e88f69a37ceb9393_1 phases=1 bus1=2395773-8841523.1.4 conn=wye kv=0.1270 pf=1 pmpp=2.39 kva=2.39 irradiance=1 temperature=25 %cutin=20 %cutout=20 effcurve=MyEff P-TCurve=MyPvsT Daily=IRRAD_DIA TDaily=TEMP_DIA
New PVSystem.GD_d9fd718af56c64eb81e19bc49729ec9d5c13f71960368269e88f69a37ceb9393_2 phases=1 bus1=2395773-8841523.2.4 conn=wye kv=0.1270 pf=1 pmpp=2.39 kva=2.39 irradiance=1 temperature=25 %cutin=20 %cutout=20 effcurve=MyEff P-TCurve=MyPvsT Daily=IRRAD_DIA TDaily=TEMP_DIA
New PVSystem.GD_d9fd718af56c64eb81e19bc49729ec9d5c13f71960368269e88f69a37ceb9393_3 phases=1 bus1=2395773-8841523.3.4 conn=wye kv=0.1270 pf=1 pmpp=2.39 kva=2.39 irradiance=1 temperature=25 %cutin=20 %cutout=20 effcurve=MyEff P-TCurve=MyPvsT Daily=IRRAD_DIA TDaily=TEMP_DIA
New PVSystem.GD_4fc8fbdf93c21803d1c958a079bc10039154df82af417fdc5b77f7b1ad812565_1 phases=1 bus1=2395773-8841523.1.4 conn=wye kv=0.1270 pf=1 pmpp=0.56 kva=0.56 irradiance=1 temperature=25 %cutin=20 %cutout=20 effcurve=MyEff P-TCurve=MyPvsT Daily=IRRAD_DIA TDaily=TEMP_DIA
New PVSystem.GD_4fc8fbdf93c21803d1c958a079bc10039154df82af417fdc5b77f7b1ad812565_2 phases=1 bus1=2395773-8841523.2.4 conn=wye kv=0.1270 pf=1 pmpp=0.56 kva=0.56 irradiance=1 temperature=25 %cutin=20 %cutout=20 effcurve=MyEff P-TCurve=MyPvsT Daily=IRRAD_DIA TDaily=TEMP_DIA
New PVSystem.GD_4fc8fbdf93c21803d1c958a079bc10039154df82af417fdc5b77f7b1ad812565_3 phases=1 bus1=2395773-8841523.3.4 conn=wye kv=0.1270 pf=1 pmpp=0.56 kva=0.56 irradiance=1 temperature=25 %cutin=20 %cutout=20 effcurve=MyEff P-TCurve=MyPvsT Daily=IRRAD_DIA TDaily=TEMP_DIA
New PVSystem.GD_5ca86cf9255ddaf09f702ffbd95b3a6a33437c1e2d927452fd3aa203ba50a365_1 phases=1 bus1=2395629-8840908.1.4 conn=wye kv=0.1270 pf=1 pmpp=2.74 kva=2.74 irradiance=1 temperature=25 %cutin=20 %cutout=20 effcurve=MyEff P-TCurve=MyPvsT Daily=IRRAD_DIA TDaily=TEMP_DIA
New PVSystem.GD_5ca86cf9255ddaf09f702ffbd95b3a6a33437c1e2d927452fd3aa203ba50a365_2 phases=1 bus1=2395629-8840908.2.4 conn=wye kv=0.1270 pf=1 pmpp=2.74 kva=2.74 irradiance=1 temperature=25 %cutin=20 %cutout=20 effcurve=MyEff P-TCurve=MyPvsT Daily=IRRAD_DIA TDaily=TEMP_DIA
New PVSystem.GD_5ca86cf9255ddaf09f702ffbd95b3a6a33437c1e2d927452fd3aa203ba50a365_3 phases=1 bus1=2395629-8840908.3.4 conn=wye kv=0.1270 pf=1 pmpp=2.74 kva=2.74 irradiance=1 temperature=25 %cutin=20 %cutout=20 effcurve=MyEff P-TCurve=MyPvsT Daily=IRRAD_DIA TDaily=TEMP_DIA
New PVSystem.GD_8601c5bcfade2d643245645c1524fd3ea2752eb13a9eeb71fe521d1474ce22b9_1 phases=1 bus1=2395629-8840908.1.4 conn=wye kv=0.1270 pf=1 pmpp=0.42 kva=0.42 irradiance=1 temperature=25 %cutin=20 %cutout=20 effcurve=MyEff P-TCurve=MyPvsT Daily=IRRAD_DIA TDaily=TEMP_DIA
New PVSystem.GD_8601c5bcfade2d643245645c1524fd3ea2752eb13a9eeb71fe521d1474ce22b9_2 phases=1 bus1=2395629-8840908.2.4 conn=wye kv=0.1270 pf=1 pmpp=0.42 kva=0.42 irradiance=1 temperature=25 %cutin=20 %cutout=20 effcurve=MyEff P-TCurve=MyPvsT Daily=IRRAD_DIA TDaily=TEMP_DIA
New PVSystem.GD_8601c5bcfade2d643245645c1524fd3ea2752eb13a9eeb71fe521d1474ce22b9_3 phases=1 bus1=2395629-8840908.3.4 conn=wye kv=0.1270 pf=1 pmpp=0.42 kva=0.42 irradiance=1 temperature=25 %cutin=20 %cutout=20 effcurve=MyEff P-TCurve=MyPvsT Daily=IRRAD_DIA TDaily=TEMP_DIA
New PVSystem.GD_e4c4bb045a7c8288acc5314253d68d3ee5a6de494ad1b5b91c8b5b61b371ade6_1 phases=1 bus1=2395629-8840908.1.4 conn=wye kv=0.1270 pf=1 pmpp=1.46 kva=1.46 irradiance=1 temperature=25 %cutin=20 %cutout=20 effcurve=MyEff P-TCurve=MyPvsT Daily=IRRAD_DIA TDaily=TEMP_DIA
New PVSystem.GD_e4c4bb045a7c8288acc5314253d68d3ee5a6de494ad1b5b91c8b5b61b371ade6_2 phases=1 bus1=2395629-8840908.2.4 conn=wye kv=0.1270 pf=1 pmpp=1.46 kva=1.46 irradiance=1 temperature=25 %cutin=20 %cutout=20 effcurve=MyEff P-TCurve=MyPvsT Daily=IRRAD_DIA TDaily=TEMP_DIA
New PVSystem.GD_e4c4bb045a7c8288acc5314253d68d3ee5a6de494ad1b5b91c8b5b61b371ade6_3 phases=1 bus1=2395629-8840908.3.4 conn=wye kv=0.1270 pf=1 pmpp=1.46 kva=1.46 irradiance=1 temperature=25 %cutin=20 %cutout=20 effcurve=MyEff P-TCurve=MyPvsT Daily=IRRAD_DIA TDaily=TEMP_DIA
New PVSystem.GD_9fbb0fe3f18f6be20b604a462bca17845fd8bf7ab97aa97a08139ff2ca3be581_1 phases=1 bus1=2395629-8840908.1.4 conn=wye kv=0.1270 pf=1 pmpp=1.30 kva=1.30 irradiance=1 temperature=25 %cutin=20 %cutout=20 effcurve=MyEff P-TCurve=MyPvsT Daily=IRRAD_DIA TDaily=TEMP_DIA
New PVSystem.GD_9fbb0fe3f18f6be20b604a462bca17845fd8bf7ab97aa97a08139ff2ca3be581_2 phases=1 bus1=2395629-8840908.2.4 conn=wye kv=0.1270 pf=1 pmpp=1.30 kva=1.30 irradiance=1 temperature=25 %cutin=20 %cutout=20 effcurve=MyEff P-TCurve=MyPvsT Daily=IRRAD_DIA TDaily=TEMP_DIA
New PVSystem.GD_9fbb0fe3f18f6be20b604a462bca17845fd8bf7ab97aa97a08139ff2ca3be581_3 phases=1 bus1=2395629-8840908.3.4 conn=wye kv=0.1270 pf=1 pmpp=1.30 kva=1.30 irradiance=1 temperature=25 %cutin=20 %cutout=20 effcurve=MyEff P-TCurve=MyPvsT Daily=IRRAD_DIA TDaily=TEMP_DIA
New PVSystem.GD_f846149af5f34051e94a5f47d6ac2923a6880ba8fc66a233c7a60a58f1433745_1 phases=1 bus1=2417021-8955648.1.4 conn=wye kv=0.1270 pf=1 pmpp=5.37 kva=5.37 irradiance=1 temperature=25 %cutin=20 %cutout=20 effcurve=MyEff P-TCurve=MyPvsT Daily=IRRAD_DIA TDaily=TEMP_DIA
New PVSystem.GD_f846149af5f34051e94a5f47d6ac2923a6880ba8fc66a233c7a60a58f1433745_2 phases=1 bus1=2417021-8955648.2.4 conn=wye kv=0.1270 pf=1 pmpp=5.37 kva=5.37 irradiance=1 temperature=25 %cutin=20 %cutout=20 effcurve=MyEff P-TCurve=MyPvsT Daily=IRRAD_DIA TDaily=TEMP_DIA
New PVSystem.GD_f846149af5f34051e94a5f47d6ac2923a6880ba8fc66a233c7a60a58f1433745_3 phases=1 bus1=2417021-8955648.3.4 conn=wye kv=0.1270 pf=1 pmpp=5.37 kva=5.37 irradiance=1 temperature=25 %cutin=20 %cutout=20 effcurve=MyEff P-TCurve=MyPvsT Daily=IRRAD_DIA TDaily=TEMP_DIA
New PVSystem.GD_ababc09801b0f938aedcd25f02020c507d1ee665d980f9c77550bfcd8aee3bce_1 phases=1 bus1=2395716-8840670.1.4 conn=wye kv=0.1270 pf=1 pmpp=0.59 kva=0.59 irradiance=1 temperature=25 %cutin=20 %cutout=20 effcurve=MyEff P-TCurve=MyPvsT Daily=IRRAD_DIA TDaily=TEMP_DIA
New PVSystem.GD_ababc09801b0f938aedcd25f02020c507d1ee665d980f9c77550bfcd8aee3bce_2 phases=1 bus1=2395716-8840670.2.4 conn=wye kv=0.1270 pf=1 pmpp=0.59 kva=0.59 irradiance=1 temperature=25 %cutin=20 %cutout=20 effcurve=MyEff P-TCurve=MyPvsT Daily=IRRAD_DIA TDaily=TEMP_DIA
New PVSystem.GD_ababc09801b0f938aedcd25f02020c507d1ee665d980f9c77550bfcd8aee3bce_3 phases=1 bus1=2395716-8840670.3.4 conn=wye kv=0.1270 pf=1 pmpp=0.59 kva=0.59 irradiance=1 temperature=25 %cutin=20 %cutout=20 effcurve=MyEff P-TCurve=MyPvsT Daily=IRRAD_DIA TDaily=TEMP_DIA
New PVSystem.GD_10dec5924ee1210bb7f0f4af6099a3ddc40482b43b94bf3f04e369f3c11b228d_1 phases=1 bus1=2395716-8840670.1.4 conn=wye kv=0.1270 pf=1 pmpp=1.50 kva=1.50 irradiance=1 temperature=25 %cutin=20 %cutout=20 effcurve=MyEff P-TCurve=MyPvsT Daily=IRRAD_DIA TDaily=TEMP_DIA
New PVSystem.GD_10dec5924ee1210bb7f0f4af6099a3ddc40482b43b94bf3f04e369f3c11b228d_2 phases=1 bus1=2395716-8840670.2.4 conn=wye kv=0.1270 pf=1 pmpp=1.50 kva=1.50 irradiance=1 temperature=25 %cutin=20 %cutout=20 effcurve=MyEff P-TCurve=MyPvsT Daily=IRRAD_DIA TDaily=TEMP_DIA
New PVSystem.GD_10dec5924ee1210bb7f0f4af6099a3ddc40482b43b94bf3f04e369f3c11b228d_3 phases=1 bus1=2395716-8840670.3.4 conn=wye kv=0.1270 pf=1 pmpp=1.50 kva=1.50 irradiance=1 temperature=25 %cutin=20 %cutout=20 effcurve=MyEff P-TCurve=MyPvsT Daily=IRRAD_DIA TDaily=TEMP_DIA
New PVSystem.GD_647589ac1af8d52b5abce191360ed3cd76c29a0c0cdd4d7fb9aea0ef04867e6e_1 phases=1 bus1=2395716-8840670.1.4 conn=wye kv=0.1270 pf=1 pmpp=0.94 kva=0.94 irradiance=1 temperature=25 %cutin=20 %cutout=20 effcurve=MyEff P-TCurve=MyPvsT Daily=IRRAD_DIA TDaily=TEMP_DIA
New PVSystem.GD_647589ac1af8d52b5abce191360ed3cd76c29a0c0cdd4d7fb9aea0ef04867e6e_2 phases=1 bus1=2395716-8840670.2.4 conn=wye kv=0.1270 pf=1 pmpp=0.94 kva=0.94 irradiance=1 temperature=25 %cutin=20 %cutout=20 effcurve=MyEff P-TCurve=MyPvsT Daily=IRRAD_DIA TDaily=TEMP_DIA
New PVSystem.GD_647589ac1af8d52b5abce191360ed3cd76c29a0c0cdd4d7fb9aea0ef04867e6e_3 phases=1 bus1=2395716-8840670.3.4 conn=wye kv=0.1270 pf=1 pmpp=0.94 kva=0.94 irradiance=1 temperature=25 %cutin=20 %cutout=20 effcurve=MyEff P-TCurve=MyPvsT Daily=IRRAD_DIA TDaily=TEMP_DIA
New PVSystem.GD_0b0605192be1d82f477d5884548f119452f410f0909a20d34bcc1d0e5c11ab2a_1 phases=1 bus1=2395716-8840670.1.4 conn=wye kv=0.1270 pf=1 pmpp=0.85 kva=0.85 irradiance=1 temperature=25 %cutin=20 %cutout=20 effcurve=MyEff P-TCurve=MyPvsT Daily=IRRAD_DIA TDaily=TEMP_DIA
New PVSystem.GD_0b0605192be1d82f477d5884548f119452f410f0909a20d34bcc1d0e5c11ab2a_2 phases=1 bus1=2395716-8840670.2.4 conn=wye kv=0.1270 pf=1 pmpp=0.85 kva=0.85 irradiance=1 temperature=25 %cutin=20 %cutout=20 effcurve=MyEff P-TCurve=MyPvsT Daily=IRRAD_DIA TDaily=TEMP_DIA
New PVSystem.GD_0b0605192be1d82f477d5884548f119452f410f0909a20d34bcc1d0e5c11ab2a_3 phases=1 bus1=2395716-8840670.3.4 conn=wye kv=0.1270 pf=1 pmpp=0.85 kva=0.85 irradiance=1 temperature=25 %cutin=20 %cutout=20 effcurve=MyEff P-TCurve=MyPvsT Daily=IRRAD_DIA TDaily=TEMP_DIA
New PVSystem.GD_ee1ce06fa8abb77f79dd0fa408d694f9b99bacf5e129e858d06c717c66af64bf_1 phases=1 bus1=2395716-8840670.1.4 conn=wye kv=0.1270 pf=1 pmpp=0.58 kva=0.58 irradiance=1 temperature=25 %cutin=20 %cutout=20 effcurve=MyEff P-TCurve=MyPvsT Daily=IRRAD_DIA TDaily=TEMP_DIA
New PVSystem.GD_ee1ce06fa8abb77f79dd0fa408d694f9b99bacf5e129e858d06c717c66af64bf_2 phases=1 bus1=2395716-8840670.2.4 conn=wye kv=0.1270 pf=1 pmpp=0.58 kva=0.58 irradiance=1 temperature=25 %cutin=20 %cutout=20 effcurve=MyEff P-TCurve=MyPvsT Daily=IRRAD_DIA TDaily=TEMP_DIA
New PVSystem.GD_ee1ce06fa8abb77f79dd0fa408d694f9b99bacf5e129e858d06c717c66af64bf_3 phases=1 bus1=2395716-8840670.3.4 conn=wye kv=0.1270 pf=1 pmpp=0.58 kva=0.58 irradiance=1 temperature=25 %cutin=20 %cutout=20 effcurve=MyEff P-TCurve=MyPvsT Daily=IRRAD_DIA TDaily=TEMP_DIA
New PVSystem.GD_9d1c515e9bf5fd3c8ea3c69e16074040a760e836f609012933a3426f9ea864a9_1 phases=1 bus1=2395716-8840670.1.4 conn=wye kv=0.1270 pf=1 pmpp=1.00 kva=1.00 irradiance=1 temperature=25 %cutin=20 %cutout=20 effcurve=MyEff P-TCurve=MyPvsT Daily=IRRAD_DIA TDaily=TEMP_DIA
New PVSystem.GD_9d1c515e9bf5fd3c8ea3c69e16074040a760e836f609012933a3426f9ea864a9_2 phases=1 bus1=2395716-8840670.2.4 conn=wye kv=0.1270 pf=1 pmpp=1.00 kva=1.00 irradiance=1 temperature=25 %cutin=20 %cutout=20 effcurve=MyEff P-TCurve=MyPvsT Daily=IRRAD_DIA TDaily=TEMP_DIA
New PVSystem.GD_9d1c515e9bf5fd3c8ea3c69e16074040a760e836f609012933a3426f9ea864a9_3 phases=1 bus1=2395716-8840670.3.4 conn=wye kv=0.1270 pf=1 pmpp=1.00 kva=1.00 irradiance=1 temperature=25 %cutin=20 %cutout=20 effcurve=MyEff P-TCurve=MyPvsT Daily=IRRAD_DIA TDaily=TEMP_DIA
New PVSystem.GD_72d8fbdf13e0fe2580acc8c3531dc3be3be4495dfe0d1d57d2b096d6c5920536_1 phases=1 bus1=2395716-8840670.1.4 conn=wye kv=0.1270 pf=1 pmpp=0.57 kva=0.57 irradiance=1 temperature=25 %cutin=20 %cutout=20 effcurve=MyEff P-TCurve=MyPvsT Daily=IRRAD_DIA TDaily=TEMP_DIA
New PVSystem.GD_72d8fbdf13e0fe2580acc8c3531dc3be3be4495dfe0d1d57d2b096d6c5920536_2 phases=1 bus1=2395716-8840670.2.4 conn=wye kv=0.1270 pf=1 pmpp=0.57 kva=0.57 irradiance=1 temperature=25 %cutin=20 %cutout=20 effcurve=MyEff P-TCurve=MyPvsT Daily=IRRAD_DIA TDaily=TEMP_DIA
New PVSystem.GD_72d8fbdf13e0fe2580acc8c3531dc3be3be4495dfe0d1d57d2b096d6c5920536_3 phases=1 bus1=2395716-8840670.3.4 conn=wye kv=0.1270 pf=1 pmpp=0.57 kva=0.57 irradiance=1 temperature=25 %cutin=20 %cutout=20 effcurve=MyEff P-TCurve=MyPvsT Daily=IRRAD_DIA TDaily=TEMP_DIA
New PVSystem.GD_8cde62e2ff713c886dc6d4317a23a8d8929ddfa0cfcdef0d86a7ff5cea3bcc58_1 phases=1 bus1=2395716-8840670.1.4 conn=wye kv=0.1270 pf=1 pmpp=0.86 kva=0.86 irradiance=1 temperature=25 %cutin=20 %cutout=20 effcurve=MyEff P-TCurve=MyPvsT Daily=IRRAD_DIA TDaily=TEMP_DIA
New PVSystem.GD_8cde62e2ff713c886dc6d4317a23a8d8929ddfa0cfcdef0d86a7ff5cea3bcc58_2 phases=1 bus1=2395716-8840670.2.4 conn=wye kv=0.1270 pf=1 pmpp=0.86 kva=0.86 irradiance=1 temperature=25 %cutin=20 %cutout=20 effcurve=MyEff P-TCurve=MyPvsT Daily=IRRAD_DIA TDaily=TEMP_DIA
New PVSystem.GD_8cde62e2ff713c886dc6d4317a23a8d8929ddfa0cfcdef0d86a7ff5cea3bcc58_3 phases=1 bus1=2395716-8840670.3.4 conn=wye kv=0.1270 pf=1 pmpp=0.86 kva=0.86 irradiance=1 temperature=25 %cutin=20 %cutout=20 effcurve=MyEff P-TCurve=MyPvsT Daily=IRRAD_DIA TDaily=TEMP_DIA
New PVSystem.GD_81a6633b8b1e272cfccd8f15d1ab7ce38252fe1f43744ca1ea2d08dfc9dc71a4_1 phases=1 bus1=2395716-8840670.1.4 conn=wye kv=0.1270 pf=1 pmpp=0.99 kva=0.99 irradiance=1 temperature=25 %cutin=20 %cutout=20 effcurve=MyEff P-TCurve=MyPvsT Daily=IRRAD_DIA TDaily=TEMP_DIA
New PVSystem.GD_81a6633b8b1e272cfccd8f15d1ab7ce38252fe1f43744ca1ea2d08dfc9dc71a4_2 phases=1 bus1=2395716-8840670.2.4 conn=wye kv=0.1270 pf=1 pmpp=0.99 kva=0.99 irradiance=1 temperature=25 %cutin=20 %cutout=20 effcurve=MyEff P-TCurve=MyPvsT Daily=IRRAD_DIA TDaily=TEMP_DIA
New PVSystem.GD_81a6633b8b1e272cfccd8f15d1ab7ce38252fe1f43744ca1ea2d08dfc9dc71a4_3 phases=1 bus1=2395716-8840670.3.4 conn=wye kv=0.1270 pf=1 pmpp=0.99 kva=0.99 irradiance=1 temperature=25 %cutin=20 %cutout=20 effcurve=MyEff P-TCurve=MyPvsT Daily=IRRAD_DIA TDaily=TEMP_DIA
New PVSystem.GD_65b933eadc3adce3af11ce79d4cdf25e290997a51f83c7a02bb69aa670d4c8b0_1 phases=1 bus1=2395691-8841169.1.4 conn=wye kv=0.1270 pf=1 pmpp=1.70 kva=1.70 irradiance=1 temperature=25 %cutin=20 %cutout=20 effcurve=MyEff P-TCurve=MyPvsT Daily=IRRAD_DIA TDaily=TEMP_DIA
New PVSystem.GD_65b933eadc3adce3af11ce79d4cdf25e290997a51f83c7a02bb69aa670d4c8b0_2 phases=1 bus1=2395691-8841169.2.4 conn=wye kv=0.1270 pf=1 pmpp=1.70 kva=1.70 irradiance=1 temperature=25 %cutin=20 %cutout=20 effcurve=MyEff P-TCurve=MyPvsT Daily=IRRAD_DIA TDaily=TEMP_DIA
New PVSystem.GD_65b933eadc3adce3af11ce79d4cdf25e290997a51f83c7a02bb69aa670d4c8b0_3 phases=1 bus1=2395691-8841169.3.4 conn=wye kv=0.1270 pf=1 pmpp=1.70 kva=1.70 irradiance=1 temperature=25 %cutin=20 %cutout=20 effcurve=MyEff P-TCurve=MyPvsT Daily=IRRAD_DIA TDaily=TEMP_DIA
New PVSystem.GD_3b4e10637f5eabfec9759985b52196687f5284c6d346c0d292563d61fcc4fb0f_1 phases=1 bus1=2395691-8841169.1.4 conn=wye kv=0.1270 pf=1 pmpp=0.93 kva=0.93 irradiance=1 temperature=25 %cutin=20 %cutout=20 effcurve=MyEff P-TCurve=MyPvsT Daily=IRRAD_DIA TDaily=TEMP_DIA
New PVSystem.GD_3b4e10637f5eabfec9759985b52196687f5284c6d346c0d292563d61fcc4fb0f_2 phases=1 bus1=2395691-8841169.2.4 conn=wye kv=0.1270 pf=1 pmpp=0.93 kva=0.93 irradiance=1 temperature=25 %cutin=20 %cutout=20 effcurve=MyEff P-TCurve=MyPvsT Daily=IRRAD_DIA TDaily=TEMP_DIA
New PVSystem.GD_3b4e10637f5eabfec9759985b52196687f5284c6d346c0d292563d61fcc4fb0f_3 phases=1 bus1=2395691-8841169.3.4 conn=wye kv=0.1270 pf=1 pmpp=0.93 kva=0.93 irradiance=1 temperature=25 %cutin=20 %cutout=20 effcurve=MyEff P-TCurve=MyPvsT Daily=IRRAD_DIA TDaily=TEMP_DIA
New PVSystem.GD_23e6a23894932d757d131b5ba06530a9889eebb7ce8b10eb85c17b403e6b476b_1 phases=1 bus1=2395691-8841169.1.4 conn=wye kv=0.1270 pf=1 pmpp=3.87 kva=3.87 irradiance=1 temperature=25 %cutin=20 %cutout=20 effcurve=MyEff P-TCurve=MyPvsT Daily=IRRAD_DIA TDaily=TEMP_DIA
New PVSystem.GD_23e6a23894932d757d131b5ba06530a9889eebb7ce8b10eb85c17b403e6b476b_2 phases=1 bus1=2395691-8841169.2.4 conn=wye kv=0.1270 pf=1 pmpp=3.87 kva=3.87 irradiance=1 temperature=25 %cutin=20 %cutout=20 effcurve=MyEff P-TCurve=MyPvsT Daily=IRRAD_DIA TDaily=TEMP_DIA
New PVSystem.GD_23e6a23894932d757d131b5ba06530a9889eebb7ce8b10eb85c17b403e6b476b_3 phases=1 bus1=2395691-8841169.3.4 conn=wye kv=0.1270 pf=1 pmpp=3.87 kva=3.87 irradiance=1 temperature=25 %cutin=20 %cutout=20 effcurve=MyEff P-TCurve=MyPvsT Daily=IRRAD_DIA TDaily=TEMP_DIA
New PVSystem.GD_06df4752f71427fc9d417f7a6791ef231e4a80cf727a95ff2db294d2b72e87dd_1 phases=1 bus1=2395691-8841169.1.4 conn=wye kv=0.1270 pf=1 pmpp=1.22 kva=1.22 irradiance=1 temperature=25 %cutin=20 %cutout=20 effcurve=MyEff P-TCurve=MyPvsT Daily=IRRAD_DIA TDaily=TEMP_DIA
New PVSystem.GD_06df4752f71427fc9d417f7a6791ef231e4a80cf727a95ff2db294d2b72e87dd_2 phases=1 bus1=2395691-8841169.2.4 conn=wye kv=0.1270 pf=1 pmpp=1.22 kva=1.22 irradiance=1 temperature=25 %cutin=20 %cutout=20 effcurve=MyEff P-TCurve=MyPvsT Daily=IRRAD_DIA TDaily=TEMP_DIA
New PVSystem.GD_06df4752f71427fc9d417f7a6791ef231e4a80cf727a95ff2db294d2b72e87dd_3 phases=1 bus1=2395691-8841169.3.4 conn=wye kv=0.1270 pf=1 pmpp=1.22 kva=1.22 irradiance=1 temperature=25 %cutin=20 %cutout=20 effcurve=MyEff P-TCurve=MyPvsT Daily=IRRAD_DIA TDaily=TEMP_DIA
New PVSystem.GD_70e0de27ede1185bd418b23c851ec33c5bfd057e957ea7f446c51f2340fa7c84_1 phases=1 bus1=2395691-8841169.1.4 conn=wye kv=0.1270 pf=1 pmpp=0.24 kva=0.24 irradiance=1 temperature=25 %cutin=20 %cutout=20 effcurve=MyEff P-TCurve=MyPvsT Daily=IRRAD_DIA TDaily=TEMP_DIA
New PVSystem.GD_70e0de27ede1185bd418b23c851ec33c5bfd057e957ea7f446c51f2340fa7c84_2 phases=1 bus1=2395691-8841169.2.4 conn=wye kv=0.1270 pf=1 pmpp=0.24 kva=0.24 irradiance=1 temperature=25 %cutin=20 %cutout=20 effcurve=MyEff P-TCurve=MyPvsT Daily=IRRAD_DIA TDaily=TEMP_DIA
New PVSystem.GD_70e0de27ede1185bd418b23c851ec33c5bfd057e957ea7f446c51f2340fa7c84_3 phases=1 bus1=2395691-8841169.3.4 conn=wye kv=0.1270 pf=1 pmpp=0.24 kva=0.24 irradiance=1 temperature=25 %cutin=20 %cutout=20 effcurve=MyEff P-TCurve=MyPvsT Daily=IRRAD_DIA TDaily=TEMP_DIA
New PVSystem.GD_11071efcf7bb6e34bab5878b1babaea2c63c762057e2906f7cd01d0858e6de57_1 phases=1 bus1=2395691-8841169.1.4 conn=wye kv=0.1270 pf=1 pmpp=0.82 kva=0.82 irradiance=1 temperature=25 %cutin=20 %cutout=20 effcurve=MyEff P-TCurve=MyPvsT Daily=IRRAD_DIA TDaily=TEMP_DIA
New PVSystem.GD_11071efcf7bb6e34bab5878b1babaea2c63c762057e2906f7cd01d0858e6de57_2 phases=1 bus1=2395691-8841169.2.4 conn=wye kv=0.1270 pf=1 pmpp=0.82 kva=0.82 irradiance=1 temperature=25 %cutin=20 %cutout=20 effcurve=MyEff P-TCurve=MyPvsT Daily=IRRAD_DIA TDaily=TEMP_DIA
New PVSystem.GD_11071efcf7bb6e34bab5878b1babaea2c63c762057e2906f7cd01d0858e6de57_3 phases=1 bus1=2395691-8841169.3.4 conn=wye kv=0.1270 pf=1 pmpp=0.82 kva=0.82 irradiance=1 temperature=25 %cutin=20 %cutout=20 effcurve=MyEff P-TCurve=MyPvsT Daily=IRRAD_DIA TDaily=TEMP_DIA
New PVSystem.GD_1f039ede9b1a946a657b0d26e6a2ac1453a16209d4106d0828492154cce573da_1 phases=1 bus1=2395691-8841169.1.4 conn=wye kv=0.1270 pf=1 pmpp=1.32 kva=1.32 irradiance=1 temperature=25 %cutin=20 %cutout=20 effcurve=MyEff P-TCurve=MyPvsT Daily=IRRAD_DIA TDaily=TEMP_DIA
New PVSystem.GD_1f039ede9b1a946a657b0d26e6a2ac1453a16209d4106d0828492154cce573da_2 phases=1 bus1=2395691-8841169.2.4 conn=wye kv=0.1270 pf=1 pmpp=1.32 kva=1.32 irradiance=1 temperature=25 %cutin=20 %cutout=20 effcurve=MyEff P-TCurve=MyPvsT Daily=IRRAD_DIA TDaily=TEMP_DIA
New PVSystem.GD_1f039ede9b1a946a657b0d26e6a2ac1453a16209d4106d0828492154cce573da_3 phases=1 bus1=2395691-8841169.3.4 conn=wye kv=0.1270 pf=1 pmpp=1.32 kva=1.32 irradiance=1 temperature=25 %cutin=20 %cutout=20 effcurve=MyEff P-TCurve=MyPvsT Daily=IRRAD_DIA TDaily=TEMP_DIA
New PVSystem.GD_b577adcf5f96e5111bea2e63f5dde578d6591212b09caeea4584ef7efb4a2432_1 phases=1 bus1=2416941-8955485.1.4 conn=wye kv=0.1270 pf=1 pmpp=1.46 kva=1.46 irradiance=1 temperature=25 %cutin=20 %cutout=20 effcurve=MyEff P-TCurve=MyPvsT Daily=IRRAD_DIA TDaily=TEMP_DIA
New PVSystem.GD_b577adcf5f96e5111bea2e63f5dde578d6591212b09caeea4584ef7efb4a2432_2 phases=1 bus1=2416941-8955485.2.4 conn=wye kv=0.1270 pf=1 pmpp=1.46 kva=1.46 irradiance=1 temperature=25 %cutin=20 %cutout=20 effcurve=MyEff P-TCurve=MyPvsT Daily=IRRAD_DIA TDaily=TEMP_DIA
New PVSystem.GD_b577adcf5f96e5111bea2e63f5dde578d6591212b09caeea4584ef7efb4a2432_3 phases=1 bus1=2416941-8955485.3.4 conn=wye kv=0.1270 pf=1 pmpp=1.46 kva=1.46 irradiance=1 temperature=25 %cutin=20 %cutout=20 effcurve=MyEff P-TCurve=MyPvsT Daily=IRRAD_DIA TDaily=TEMP_DIA
New PVSystem.GD_7f6b131a36ca89758d5d0097ff953882656613d23894568a20940f28641792b8_1 phases=1 bus1=2416941-8955485.1.4 conn=wye kv=0.1270 pf=1 pmpp=0.75 kva=0.75 irradiance=1 temperature=25 %cutin=20 %cutout=20 effcurve=MyEff P-TCurve=MyPvsT Daily=IRRAD_DIA TDaily=TEMP_DIA
New PVSystem.GD_7f6b131a36ca89758d5d0097ff953882656613d23894568a20940f28641792b8_2 phases=1 bus1=2416941-8955485.2.4 conn=wye kv=0.1270 pf=1 pmpp=0.75 kva=0.75 irradiance=1 temperature=25 %cutin=20 %cutout=20 effcurve=MyEff P-TCurve=MyPvsT Daily=IRRAD_DIA TDaily=TEMP_DIA
New PVSystem.GD_7f6b131a36ca89758d5d0097ff953882656613d23894568a20940f28641792b8_3 phases=1 bus1=2416941-8955485.3.4 conn=wye kv=0.1270 pf=1 pmpp=0.75 kva=0.75 irradiance=1 temperature=25 %cutin=20 %cutout=20 effcurve=MyEff P-TCurve=MyPvsT Daily=IRRAD_DIA TDaily=TEMP_DIA
New PVSystem.GD_232277df364b7351fda241f826faf70d8b0c8996c9eea9b0e4183f31f0746591_1 phases=1 bus1=2970130-8955828.1.4 conn=wye kv=0.1270 pf=1 pmpp=1.49 kva=1.49 irradiance=1 temperature=25 %cutin=20 %cutout=20 effcurve=MyEff P-TCurve=MyPvsT Daily=IRRAD_DIA TDaily=TEMP_DIA
New PVSystem.GD_232277df364b7351fda241f826faf70d8b0c8996c9eea9b0e4183f31f0746591_2 phases=1 bus1=2970130-8955828.2.4 conn=wye kv=0.1270 pf=1 pmpp=1.49 kva=1.49 irradiance=1 temperature=25 %cutin=20 %cutout=20 effcurve=MyEff P-TCurve=MyPvsT Daily=IRRAD_DIA TDaily=TEMP_DIA
New PVSystem.GD_232277df364b7351fda241f826faf70d8b0c8996c9eea9b0e4183f31f0746591_3 phases=1 bus1=2970130-8955828.3.4 conn=wye kv=0.1270 pf=1 pmpp=1.49 kva=1.49 irradiance=1 temperature=25 %cutin=20 %cutout=20 effcurve=MyEff P-TCurve=MyPvsT Daily=IRRAD_DIA TDaily=TEMP_DIA
New PVSystem.GD_c11e77ed58c965faff7bb6f6036fa374db2cca2d07e0bc35123d8c6c7d28f015_1 phases=1 bus1=2970130-8955828.1.4 conn=wye kv=0.1270 pf=1 pmpp=1.72 kva=1.72 irradiance=1 temperature=25 %cutin=20 %cutout=20 effcurve=MyEff P-TCurve=MyPvsT Daily=IRRAD_DIA TDaily=TEMP_DIA
New PVSystem.GD_c11e77ed58c965faff7bb6f6036fa374db2cca2d07e0bc35123d8c6c7d28f015_2 phases=1 bus1=2970130-8955828.2.4 conn=wye kv=0.1270 pf=1 pmpp=1.72 kva=1.72 irradiance=1 temperature=25 %cutin=20 %cutout=20 effcurve=MyEff P-TCurve=MyPvsT Daily=IRRAD_DIA TDaily=TEMP_DIA
New PVSystem.GD_c11e77ed58c965faff7bb6f6036fa374db2cca2d07e0bc35123d8c6c7d28f015_3 phases=1 bus1=2970130-8955828.3.4 conn=wye kv=0.1270 pf=1 pmpp=1.72 kva=1.72 irradiance=1 temperature=25 %cutin=20 %cutout=20 effcurve=MyEff P-TCurve=MyPvsT Daily=IRRAD_DIA TDaily=TEMP_DIA
New PVSystem.GD_29a0256bda4d6c07dcd3ab6a0cef67ed4c37f6aa76742597376825b32e89dc6e_1 phases=1 bus1=2395672-8840492.1.4 conn=wye kv=0.1270 pf=1 pmpp=3.10 kva=3.10 irradiance=1 temperature=25 %cutin=20 %cutout=20 effcurve=MyEff P-TCurve=MyPvsT Daily=IRRAD_DIA TDaily=TEMP_DIA
New PVSystem.GD_29a0256bda4d6c07dcd3ab6a0cef67ed4c37f6aa76742597376825b32e89dc6e_2 phases=1 bus1=2395672-8840492.2.4 conn=wye kv=0.1270 pf=1 pmpp=3.10 kva=3.10 irradiance=1 temperature=25 %cutin=20 %cutout=20 effcurve=MyEff P-TCurve=MyPvsT Daily=IRRAD_DIA TDaily=TEMP_DIA
New PVSystem.GD_29a0256bda4d6c07dcd3ab6a0cef67ed4c37f6aa76742597376825b32e89dc6e_3 phases=1 bus1=2395672-8840492.3.4 conn=wye kv=0.1270 pf=1 pmpp=3.10 kva=3.10 irradiance=1 temperature=25 %cutin=20 %cutout=20 effcurve=MyEff P-TCurve=MyPvsT Daily=IRRAD_DIA TDaily=TEMP_DIA
New PVSystem.GD_21975e9fadbc0535fe74980526e964be77eaf5392db13404aa32d9031730ad6f_1 phases=1 bus1=2395672-8840492.1.4 conn=wye kv=0.1270 pf=1 pmpp=2.85 kva=2.85 irradiance=1 temperature=25 %cutin=20 %cutout=20 effcurve=MyEff P-TCurve=MyPvsT Daily=IRRAD_DIA TDaily=TEMP_DIA
New PVSystem.GD_21975e9fadbc0535fe74980526e964be77eaf5392db13404aa32d9031730ad6f_2 phases=1 bus1=2395672-8840492.2.4 conn=wye kv=0.1270 pf=1 pmpp=2.85 kva=2.85 irradiance=1 temperature=25 %cutin=20 %cutout=20 effcurve=MyEff P-TCurve=MyPvsT Daily=IRRAD_DIA TDaily=TEMP_DIA
New PVSystem.GD_21975e9fadbc0535fe74980526e964be77eaf5392db13404aa32d9031730ad6f_3 phases=1 bus1=2395672-8840492.3.4 conn=wye kv=0.1270 pf=1 pmpp=2.85 kva=2.85 irradiance=1 temperature=25 %cutin=20 %cutout=20 effcurve=MyEff P-TCurve=MyPvsT Daily=IRRAD_DIA TDaily=TEMP_DIA
New PVSystem.GD_e6b069ccbb8593f7f32e6829dba6ae33ca517a29cc540ea906e7465767e730e4_1 phases=1 bus1=2395672-8840492.1.4 conn=wye kv=0.1270 pf=1 pmpp=0.16 kva=0.16 irradiance=1 temperature=25 %cutin=20 %cutout=20 effcurve=MyEff P-TCurve=MyPvsT Daily=IRRAD_DIA TDaily=TEMP_DIA
...
